Version 4
SHEET 1 880 680
WIRE 64 -224 -160 -224
WIRE 64 -144 64 -224
WIRE -160 -96 -160 -224
WIRE -112 -96 -160 -96
WIRE 0 -96 -32 -96
WIRE 144 -48 64 -48
WIRE -160 0 -160 -96
WIRE 144 16 144 -48
WIRE 144 128 144 80
FLAG -160 80 0
FLAG 144 208 0
SYMBOL voltage -160 -16 R0
WINDOW 123 0 0 Left 0
WINDOW 39 0 0 Left 0
SYMATTR InstName ctrl
SYMATTR Value {vc}
SYMBOL LED 128 16 R0
SYMATTR InstName D1
SYMATTR Value LXK2-PW14
SYMATTR Description Diode
SYMATTR Type diode
SYMBOL npn 0 -144 R0
SYMATTR InstName Q1
SYMBOL res 128 112 R0
SYMATTR InstName R1
SYMATTR Value 1k
SYMBOL res -16 -112 R90
WINDOW 0 0 56 VBottom 2
WINDOW 3 32 56 VTop 2
SYMATTR InstName R2
SYMATTR Value 0
TEXT 264 -152 Left 2 !.step param vc 0 5.2 .1
TEXT -194 232 Left 2 !.op
