Version 4
SHEET 1 1196 680
WIRE 208 -176 -80 -176
WIRE 208 -160 208 -176
WIRE 208 -64 208 -80
WIRE 336 -64 208 -64
WIRE 208 -48 208 -64
WIRE 208 48 208 32
WIRE -480 64 -480 16
WIRE -80 160 -80 -176
WIRE 208 160 -80 160
WIRE 208 176 208 160
WIRE 336 288 336 -64
WIRE 432 288 336 288
WIRE 208 304 208 256
WIRE 416 304 208 304
WIRE 576 304 496 304
WIRE 416 320 416 304
WIRE 432 320 416 320
WIRE -80 352 -80 240
FLAG -80 352 0
FLAG 208 368 0
FLAG -480 64 0
FLAG -480 -64 VSS
FLAG 208 48 0
FLAG 576 304 digital_out
IOPIN 576 304 Out
FLAG 464 272 VSS
FLAG 464 336 0
DATAFLAG 16 160 ""
SYMBOL Voltage -80 144 R0
WINDOW 3 24 44 Left 2
WINDOW 123 0 0 Left 0
WINDOW 39 0 0 Left 0
SYMATTR InstName V1
SYMATTR Value {vl}
SYMBOL LED 224 368 R180
WINDOW 0 24 64 Left 2
WINDOW 3 24 0 Left 2
SYMATTR InstName photodiode
SYMBOL Res 192 160 R0
SYMATTR InstName R1
SYMATTR Value 10k
SYMBOL Voltage -480 -80 R0
WINDOW 123 0 0 Left 0
WINDOW 39 0 0 Left 0
SYMATTR InstName V3
SYMATTR Value 6
SYMBOL Res 192 -176 R0
SYMATTR InstName R3
SYMATTR Value 10k
SYMBOL res 192 -64 R0
SYMATTR InstName VR
SYMATTR Value 5k
SYMBOL OpAmps\\OP07 464 240 R0
SYMATTR InstName U1
TEXT 88 -216 Left 2 ;Voltage divider >> reference voltage
TEXT 864 0 Left 2 !.step param vl .04  9 .02
TEXT -514 434 Left 2 !.op
TEXT 360 192 Left 2 ;Compares laser diode voltage to reference
RECTANGLE Normal 84 -204 372 88 2
RECTANGLE Normal 544 384 400 208 2
