Version 4
SHEET 1 880 680
WIRE 208 -176 -80 -176
WIRE 208 -160 208 -176
WIRE 208 -64 208 -80
WIRE 336 -64 208 -64
WIRE 208 -48 208 -64
WIRE -368 48 -368 16
WIRE -352 48 -368 48
WIRE 208 48 208 32
WIRE -480 64 -480 16
WIRE -352 80 -352 48
WIRE -80 160 -80 -176
WIRE 208 160 -80 160
WIRE 208 176 208 160
WIRE 208 304 208 256
WIRE 336 320 336 -64
WIRE 368 320 336 320
WIRE -80 352 -80 240
FLAG -80 352 0
FLAG 208 368 0
FLAG -480 64 0
FLAG -352 80 0
FLAG -480 -64 VSS
FLAG -368 -64 VDD
FLAG 400 272 VSS
FLAG 400 336 VDD
FLAG 208 48 0
SYMBOL Voltage -80 144 R0
SYMATTR InstName V1
SYMATTR Value 3.3
SYMBOL LED 224 368 R180
WINDOW 0 24 64 Left 2
WINDOW 3 24 0 Left 2
SYMATTR InstName D1
SYMBOL Res 192 160 R0
SYMATTR InstName R1
SYMATTR Value 10k
SYMBOL OpAmps/OP227 400 240 R0
SYMATTR InstName U1
SYMBOL Voltage -480 -80 R0
SYMATTR InstName V3
SYMATTR Value 5
SYMBOL Voltage -368 -80 R0
SYMATTR InstName V4
SYMATTR Value -5
SYMBOL Res 192 -64 R0
SYMATTR InstName R2
SYMBOL Res 192 -176 R0
SYMATTR InstName R3
TEXT 88 -216 Left 2 ;Voltage divider >> reference voltage
RECTANGLE Normal 84 -204 372 88 2
